[TITLE]
Anytown network model

[JUNCTIONS]
;ID              	Elev        	Demand      	Pattern         
 20              	20.0000     	200         	1               	;
 30              	50.0000     	200.000000  	1               	;
 40              	50.0000     	200.000000  	1               	;
 50              	50.0000     	200.000000  	1               	;
 55              	80.0000     	200         	1               	;
 60              	50.0000     	200         	1               	;
 70              	50.0000     	200         	1               	;
 75              	80.0000     	200         	1               	;
 80              	50.0000     	200         	1               	;
 90              	50.0000     	200         	1               	;
 100             	50.0000     	200         	1               	;
 110             	50.0000     	200         	1               	;
 115             	80.0000     	200         	1               	;
 120             	120.0000    	200.000000  	1               	;
 130             	120.0000    	200.000000  	1               	;
 140             	80.0000     	200.000000  	1               	;
 150             	120.0000    	200.000000  	1               	;
 160             	120.0000    	200         	1               	;
 170             	120.0000    	200.000000  	1               	;

[RESERVOIRS]
;ID              	Head        	Pattern         
 10              	10.0000     	                	;
 65              	215.0000    	                	;
 165             	215.0000    	                	;

[TANKS]
;ID              	Elevation   	InitLevel   	MinLevel    	MaxLevel    	Diameter    	MinVol      	VolCurve        	Overflow

[PIPES]
;ID              	Node1           	Node2           	Length      	Diameter    	Roughness   	MinorLoss   	Status
 2               	20              	70              	12000.0000  	16.0000     	70.0000     	0.0000      	Open  	;
 4               	20              	30              	12000.0000  	12.0000     	120.0000    	0.0000      	Open  	;
 6               	20              	110             	12000.0000  	12.0000     	70.0000     	0.0000      	Open  	;
 8               	70              	30              	9000.0000   	12.0000     	70.0000     	0.0000      	Open  	;
 10              	70             		100              	600.0000    	12.0000     	70.0000     	0.0000      	Open  	;
 12              	70              	90              	600.0000    	10.0000     	70.0000     	0.0000      	Open  	;
 14              	70              	60              	600.0000    	12.0000     	70.0000     	0.0000      	Open  	;
 16              	60              	90              	600.0000    	10.0000     	70.0000     	0.0000      	Open  	;
 18              	60              	80              	600.0000    	12.0000     	70.0000     	0.0000      	Open  	;
 20              	90              	80              	600.0000    	10.0000     	70.0000     	0.0000      	Open  	;
 22              	90             		150              	600.0000    	10.0000     	70.0000     	0.0000      	Open  	;
 24              	100             	90              	600.0000    	10.0000     	70.0000     	0.0000      	Open  	;
 26              	100             	150             	600.0000    	12.0000     	70.0000     	0.0000      	Open  	;
 28              	150              	80             	600.0000    	10.0000     	70.0000     	0.0000      	Open  	;
 30              	30              	60              	600.0000    	10.0000     	120.0000    	0.0000      	Open  	;
 32              	30              	40              	600.0000    	10.0000     	120.0000    	0.0000      	Open  	;
 34              	30              	50              	600.0000    	10.0000     	120.0000    	0.0000      	Open  	;
 36              	40              	50              	600.0000    	10.0000     	120.0000    	0.0000      	Open  	;
 38              	50              	80              	600.0000    	10.0000     	120.0000    	0.0000      	Open  	;
 40              	80              	140             	600.0000    	10.0000     	120.0000    	0.0000      	Open  	;
 42              	150             	140             	600.0000    	8.0000      	120.0000    	0.0000      	Open  	;
 44              	160             	150             	600.0000    	8.0000      	120.0000    	0.0000      	Open  	;
 46              	100             	160             	600.0000    	8.0000      	120.0000    	0.0000      	Open  	;
 48              	110             	100             	600.0000    	8.0000      	70.0000     	0.0000      	Open  	;
 50              	110             	160             	600.0000    	10.0000     	120.0000    	0.0000      	Open  	;
 52              	110             	120             	600.0000    	8.0000      	120.0000    	0.0000      	Open  	;
 54              	160             	120             	600.0000    	12.0000     	130.0000    	0.0000      	Open  	;
 56              	120             	130             	600.0000    	8.0000      	120.0000    	0.0000      	Open  	;
 58              	160             	130             	600.0000    	10.0000     	120.0000    	0.0000      	Open  	;
 60              	130             	170             	600.0000    	8.0000      	120.0000    	0.0000      	Open  	;
 62              	160             	140             	600.0000    	8.0000      	120.0000    	0.0000      	Open  	;
 64              	140             	170             	12000.0000  	8.0000      	120.0000    	0.0000      	Open  	;
 66              	50              	140             	12000.0000  	8.0000      	120.0000    	0.0000      	Open  	;
 68              	140             	115             	6000.0000   	12.0000     	130.0000    	0.0000      	Open  	;
 70              	140              	75	             	6000.0000   	12.0000     	130.0000    	0.0000      	Open  	;
 72              	75              	115             	6000.0000   	12.0000     	130.0000    	0.0000      	Open  	;
 74              	50              	55              	6000.0000   	12.0000     	130.0000    	0.0000      	Open  	;
 76              	55              	75              	6000.0000   	12.0000     	130.0000    	0.0000      	Open  	;
 78              	60              	65              	100.0000    	12.0000     	120.0000    	0.0000      	Open  	;
 80              	165             	160             	100.0000    	12.0000     	120.0000    	0.0000      	Open  	;

[PUMPS]
;ID              	Node1           	Node2           	Parameters
 82              	10              	20              	HEAD 1	;

[VALVES]
;ID              	Node1           	Node2           	Diameter    	Type	Setting     	MinorLoss   

[TAGS]

[DEMANDS]
;Junction        	Demand      	Pattern         	Category

[STATUS]
;ID              	Status/Setting

[PATTERNS]
;ID              	Multipliers
;
 1               	1           

[CURVES]
;ID              	X-Value     	Y-Value
;PUMP: PUMP: PUMP: PUMP: PUMP:  Pump Curve for Pump 9
 1               	0.0000      	300.0000    
 1               	2000.0000   	292.0000    
 1               	4000.0000   	270.0000    
 1               	6000.0000   	230.0000    
 1               	8000.0000   	181.0000    
;PUMP: PUMP: PUMP: EFFICIENCY: ID Flow efficiency
 E1              	0.0000      	0.0000      
 E1              	2000.0000   	50.0000     
 E1              	4000.0000   	65.0000     
 E1              	6000.0000   	55.0000     
 E1              	8000.0000   	40.0000     

[CONTROLS]




[RULES]




[ENERGY]
 Global Efficiency  	65.0000
 Global Price       	0
 Demand Charge      	0.0000
 Pump 	82              	Efficiency	E1

[EMITTERS]
;Junction        	Coefficient

[QUALITY]
;Node            	InitQual

[SOURCES]
;Node            	Type        	Quality     	Pattern

[REACTIONS]
;Type     	Pipe/Tank       	Coefficient


[REACTIONS]
 Order Bulk            	1.00
 Order Tank            	1.00
 Order Wall            	1
 Global Bulk           	0.000000
 Global Wall           	0.000000
 Limiting Potential    	0
 Roughness Correlation 	0

[MIXING]
;Tank            	Model

[TIMES]
 Duration           	24:00 
 Hydraulic Timestep 	3:00 
 Quality Timestep   	0:05 
 Pattern Timestep   	3:00 
 Pattern Start      	0:00 
 Report Timestep    	3:00 
 Report Start       	0:00 
 Start ClockTime    	0:00:00
 Statistic          	NONE

[REPORT]
 Status             	Yes
 Summary            	No
 Page               	0

[OPTIONS]
 Units              	GPM
 Headloss           	H-W
 Specific Gravity   	1.000000
 Viscosity          	1.000000
 Trials             	40
 Accuracy           	0.00100000
 CHECKFREQ          	2
 MAXCHECK           	10
 DAMPLIMIT          	0.00000000
 Unbalanced         	Continue 10
 Pattern            	1
 Demand Multiplier  	1.0000
 Emitter Exponent   	0.5000
 Quality            	Chlorine mg/L
 Diffusivity        	1.000000
 Tolerance          	0.01000000

[COORDINATES]
;Node            	X-Coord           	Y-Coord
20              	6391.6000000      	4257.8100000      
30              	6723.6300000      	6181.6400000      
40              	5327.1500000      	7500.0000000      
50              	3959.9600000      	7050.7800000      
55              	3081.0500000      	7431.6400000      
60              	5366.2100000      	6044.9200000      
70              	5473.6300000      	4931.6400000      
75              	2270.5100000      	7089.8400000      
80              	4340.8200000      	6230.4700000      
90              	4838.8700000      	5410.1600000      
100             	4428.7100000      	4765.6300000      
110             	4125.9800000      	3945.3100000      
115             	1655.2700000      	6787.1100000      
120             	3413.0900000      	3281.2500000      
130             	2055.6600000      	3896.4800000      
140             	2124.0200000      	6015.6300000      
150             	3891.6000000      	5566.4100000      
160             	2895.5100000      	4765.6300000      
170             	825.2000000       	5126.9500000      
10              	7241.2100000      	3750.0000000      
65              	5297.8500000      	6367.1900000      
165             	2377.9300000      	4892.5800000      

[VERTICES]
;Link            	X-Coord           	Y-Coord
62              	2133.7900000      	6064.4500000      
80              	2807.6200000      	4755.8600000      

[LABELS]
;X-Coord             Y-Coord             Label & Anchor Node

[BACKDROP]
  DIMENSIONS  	504.3995000       	3070.3125000      	7562.0105000      	7710.9375000      
 UNITS          	Degrees
 FILE           	
 OFFSET         	0.00            	0.00            

[END]
